/*--------------------------------*- C++ -*----------------------------------*\
| =========                 |                                                 |
| \\      /  F ield         | OpenFOAM: The Open Source CFD Toolbox           |
|  \\    /   O peration     | Version:  dev                                   |
|   \\  /    A nd           | Web:      www.OpenFOAM.org                      |
|    \\/     M anipulation  |                                                 |
\*---------------------------------------------------------------------------*/
FoamFile
{
    version     2.0;
    format      ascii;
    class       dictionary;
    object      blockMeshDict;
}
// * * * * * * * * * * * * * * * * * * * * * * * * * * * * * * * * * * * * * //

convertToMeters 0.1;

vertices
(
    (0 0 0)//0
    (0.07 0 0)//1
    (0.08 0 0)//2
    (0.15 0 0)//3
    (0.15 0.5 0)//4
    (0.08 0.5 0)//5
    (0.07 0.5 0)//6
    (0 0.5 0)//7
    (0 0 0.005)//8
    (0.07 0 0.005)//9
    (0.08 0 0.005)//10
    (0.15 0 0.005)//11
    (0.15 0.5 0.005)//12
    (0.08 0.5 0.005)//13
    (0.07 0.5 0.005)//14
    (0 0.5 0.005)//15
);

blocks
(
    hex (0 1 6 7 8 9 14 15) (14 50 1) simpleGrading (1 1 1)
    hex (1 2 5 6 9 10 13 14) (4 50 1) simpleGrading (1 1 1)
    hex (2 3 4 5 10 11 12 13) (14 50 1) simpleGrading (1 1 1)
);

edges
(
);

boundary
(
    inlet1
    {
        type patch;
        faces
        (
            (1 9 8 0)
            (3 11 10 2)
        );
    }
    inlet2
    {
        type patch;
        faces
        (
            (2 10 9 1)
        );
    }
    outlet
    {
        type patch;
        faces
        (
            (15 14 6 7)
            (14 13 5 6)
            (13 12 4 5)
        );
    }
    walls
    {
        type wall;
        faces
        (
            (0 8 15 7)
            (4 12 11 3)
        );
    }
    frontAndBack
    {
        type empty;
        faces
        (
            (8 9 14 15)
            (9 10 13 14)
            (10 11 12 13)
            (7 6 1 0)
            (6 5 2 1)
            (5 4 3 2)
        );
    }
);

mergePatchPairs
(
);

// ************************************************************************* //
